@<TRIPOS>MOLECULE
am1_0.log
   12    11     1     0     0
SMALL
No Charge or Current Charge


@<TRIPOS>ATOM
      1 C           -1.8650    -0.1520     0.0010 c3         1 LIG      -0.063200
      2 C1          -0.5240     0.5330    -0.0010 c3         1 LIG      -0.032600
      3 C2           0.6030    -0.4860    -0.0010 c3         1 LIG       0.044000
      4 O            1.8230     0.2400     0.0010 oh         1 LIG      -0.395000
      5 H           -1.9820    -0.7970    -0.9030 hc         1 LIG       0.023000
      6 H1          -1.9800    -0.7950     0.9070 hc         1 LIG       0.023000
      7 H2          -2.6840     0.6070     0.0010 hc         1 LIG       0.023000
      8 H3          -0.4220     1.1920     0.9000 hc         1 LIG       0.028500
      9 H4          -0.4230     1.1900    -0.9040 hc         1 LIG       0.028500
     10 H5           0.5450    -1.1390     0.9110 h1         1 LIG       0.055700
     11 H6           0.5470    -1.1370    -0.9150 h1         1 LIG       0.055700
     12 H7           2.5310    -0.4130     0.0010 ho         1 LIG       0.209400
@<TRIPOS>BOND
     1    11     3 1   
     2     9     2 1   
     3     5     1 1   
     4     2     3 1   
     5     2     1 1   
     6     2     8 1   
     7     3     4 1   
     8     3    10 1   
     9    12     4 1   
    10     7     1 1   
    11     1     6 1   
@<TRIPOS>SUBSTRUCTURE
     1 LIG         1 TEMP              0 ****  ****    0 ROOT
