@<TRIPOS>MOLECULE
am1_0.log
   13    13     1     0     0
SMALL
No Charge or Current Charge


@<TRIPOS>ATOM
      1 C            1.8470     0.0240    -0.0000 ca         1 LIG      -0.061500
      2 C1           1.1330     1.2210    -0.0000 ca         1 LIG      -0.058300
      3 C2           1.1670    -1.1960     0.0000 ca         1 LIG      -0.058300
      4 C3          -0.2600     1.2110     0.0000 ca         1 LIG      -0.020200
      5 C4          -0.2240    -1.2310     0.0000 ca         1 LIG      -0.020200
      6 C5          -0.9340    -0.0190     0.0000 ca         1 LIG       0.116900
      7 O           -2.3070    -0.1120    -0.0000 oh         1 LIG      -0.506800
      8 H            2.9460     0.0400    -0.0000 ha         1 LIG       0.061800
      9 H1           1.6700     2.1820    -0.0000 ha         1 LIG       0.061900
     10 H2           1.7330    -2.1400     0.0000 ha         1 LIG       0.061900
     11 H3          -0.8260     2.1530    -0.0000 ha         1 LIG       0.065400
     12 H4          -0.7740    -2.1820     0.0000 ha         1 LIG       0.065400
     13 H5          -2.6670     0.7860     0.0000 ho         1 LIG       0.292100
@<TRIPOS>BOND
     1     7     6 1   
     2     7    13 1   
     3     8     1 1   
     4     9     2 1   
     5     1     2 ar  
     6     1     3 ar  
     7    11     4 1   
     8     2     4 ar  
     9     4     6 ar  
    10     3    10 1   
    11     3     5 ar  
    12     6     5 ar  
    13    12     5 1   
@<TRIPOS>SUBSTRUCTURE
     1 LIG         1 TEMP              0 ****  ****    0 ROOT
