@<TRIPOS>MOLECULE
mol2_conf2.xyz
 12 11 0 0 0
SMALL
GASTEIGER

@<TRIPOS>ATOM
      1 C           1.1407   -2.7504    2.0746 C.3     1  LIG1       -0.0416
      2 C          -0.6357   -0.5878    3.3072 C.3     1  LIG1        0.0364
      3 C           1.2180   -1.2365    2.0142 C.3     1  LIG1        0.0445
      4 O          -0.0409   -0.6039    2.0394 O.3     1  LIG1       -0.3832
      5 H           0.7309   -3.1043    3.0284 H       1  LIG1        0.0252
      6 H           0.5051   -3.1321    1.2666 H       1  LIG1        0.0252
      7 H           2.1412   -3.1867    1.9631 H       1  LIG1        0.0252
      8 H          -1.5558   -0.0000    3.2276 H       1  LIG1        0.0523
      9 H           0.0221   -0.1152    4.0585 H       1  LIG1        0.0523
     10 H          -0.8995   -1.5950    3.6702 H       1  LIG1        0.0523
     11 H           1.6828   -0.9240    1.0711 H       1  LIG1        0.0557
     12 H           1.8500   -0.8519    2.8360 H       1  LIG1        0.0557
@<TRIPOS>BOND
     1    11     3    1
     2     6     1    1
     3     7     1    1
     4     3     4    1
     5     3     1    1
     6     3    12    1
     7     4     2    1
     8     1     5    1
     9     8     2    1
    10     2    10    1
    11     2     9    1
