@<TRIPOS>MOLECULE
mp2_2.log
 12 11 0 0 0
SMALL
USER_CHARGES
****
Gaussian opt/gaussian/16.A.03/g16/g16 #MP2/aug-cc-pVTZ density=MP2 pop=mk iop(6/33=2,6/41=10,6/42=17,6/50=1)
@<TRIPOS>ATOM
      1 C          -1.5446   -0.5104    0.1254 C.3     1  UNL1       -0.1966
      2 C          -0.6286    0.6409   -0.2844 C.3     1  UNL1        0.1918
      3 C           0.7719    0.5325    0.2912 C.3     1  UNL1        0.1567
      4 O           1.3803   -0.6282   -0.2146 O.3     1  UNL1       -0.6308
      5 H          -1.1352   -1.4608   -0.1960 H       1  UNL1        0.0606
      6 H          -1.6682   -0.5455    1.2054 H       1  UNL1        0.0424
      7 H          -2.5299   -0.3968   -0.3171 H       1  UNL1        0.0378
      8 H          -1.0557    1.5881    0.0396 H       1  UNL1       -0.0528
      9 H          -0.5502    0.6824   -1.3678 H       1  UNL1        0.0001
     10 H           1.3491    1.4142    0.0160 H       1  UNL1       -0.0110
     11 H           0.7220    0.4944    1.3799 H       1  UNL1        0.0042
     12 H           2.2339   -0.7288    0.1647 H       1  UNL1        0.3977
@<TRIPOS>BOND
     1     9     2    1
     2     7     1    1
     3     2     8    1
     4     2     1    1
     5     2     3    1
     6     4    12    1
     7     4     3    1
     8     5     1    1
     9    10     3    1
    10     1     6    1
    11     3    11    1
