@<TRIPOS>MOLECULE
mol1_conf1.xyz
 8 7 0 0 0
SMALL
GASTEIGER

@<TRIPOS>ATOM
      1 C           0.8119   -0.5394    0.4941 C.3     1  LIG1       -0.0681
      2 C           2.1580   -0.0505   -0.0129 C.3     1  LIG1       -0.0681
      3 H          -0.0169   -0.0085    0.0087 H       1  LIG1        0.0227
      4 H           0.6745   -1.6107    0.2992 H       1  LIG1        0.0227
      5 H           0.7108   -0.3869    1.5762 H       1  LIG1        0.0227
      6 H           2.9868   -0.5814    0.4725 H       1  LIG1        0.0227
      7 H           2.2953    1.0208    0.1820 H       1  LIG1        0.0227
      8 H           2.2590   -0.2030   -1.0950 H       1  LIG1        0.0227
@<TRIPOS>BOND
     1     8     2    1
     2     2     7    1
     3     2     6    1
     4     2     1    1
     5     3     1    1
     6     4     1    1
     7     1     5    1
