@<TRIPOS>MOLECULE
mp2_1.log
 12 11 0 0 0
SMALL
USER_CHARGES
****
Gaussian opt/gaussian/16.A.03/g16/g16 #MP2/aug-cc-pVTZ density=MP2 pop=mk iop(6/33=2,6/41=10,6/42=17,6/50=1)
@<TRIPOS>ATOM
      1 C           1.8910   -0.1262    0.0179 C.3     1  UNL1       -0.2840
      2 C           0.5091    0.5215   -0.0430 C.3     1  UNL1        0.0998
      3 C          -0.6208   -0.4964    0.0227 C.3     1  UNL1        0.2741
      4 O          -1.8880    0.0947   -0.0855 O.3     1  UNL1       -0.6628
      5 H           2.0252   -0.6866    0.9397 H       1  UNL1        0.0580
      6 H           2.0389   -0.8128   -0.8115 H       1  UNL1        0.0532
      7 H           2.6751    0.6225   -0.0300 H       1  UNL1        0.0859
      8 H           0.4023    1.0953   -0.9595 H       1  UNL1       -0.0056
      9 H           0.4005    1.2260    0.7816 H       1  UNL1       -0.0165
     10 H          -0.5439   -1.1913   -0.8056 H       1  UNL1        0.0470
     11 H          -0.5461   -1.0783    0.9418 H       1  UNL1       -0.0331
     12 H          -2.0243    0.6750    0.6417 H       1  UNL1        0.3841
@<TRIPOS>BOND
     1     8     2    1
     2     6     1    1
     3    10     3    1
     4     4     3    1
     5     4    12    1
     6     2     1    1
     7     2     3    1
     8     2     9    1
     9     7     1    1
    10     1     5    1
    11     3    11    1
