@<TRIPOS>MOLECULE
mol2_conf1.xyz
 12 11 0 0 0
SMALL
GASTEIGER

@<TRIPOS>ATOM
      1 C           1.0277   -2.6452    2.1773 C.3     1  LIG1       -0.0416
      2 C           0.2154    0.8858    1.8219 C.3     1  LIG1        0.0364
      3 C           1.2906   -1.1745    1.9709 C.3     1  LIG1        0.0445
      4 O           0.0628   -0.4918    2.0061 O.3     1  LIG1       -0.3832
      5 H           0.5389   -2.8141    3.1437 H       1  LIG1        0.0252
      6 H           0.3687   -3.0298    1.3903 H       1  LIG1        0.0252
      7 H           1.9651   -3.2128    2.1561 H       1  LIG1        0.0252
      8 H          -0.7799    1.3397    1.8627 H       1  LIG1        0.0523
      9 H           0.6737    1.1220    0.8449 H       1  LIG1        0.0523
     10 H           0.8449    1.3389    2.6085 H       1  LIG1        0.0523
     11 H           1.7955   -0.9995    1.0020 H       1  LIG1        0.0557
     12 H           1.9657   -0.7838    2.7557 H       1  LIG1        0.0557
@<TRIPOS>BOND
     1     9     2    1
     2    11     3    1
     3     6     1    1
     4     2     8    1
     5     2     4    1
     6     2    10    1
     7     3     4    1
     8     3     1    1
     9     3    12    1
    10     7     1    1
    11     1     5    1
